OPT_V10/Two_days_MYC3/powerflow_results_t13.txt
Pandapower Network Debug Info
==================================================

BUS:
       vm_pu  va_degree      p_mw    q_mvar
0   0.998959   0.375826 -0.001758  0.001080
1   0.998722   0.627155 -0.002320  0.002371
2   0.997951   0.794449 -0.001034  0.002411
3   0.997247   0.533666 -0.000406  0.003794
4   0.999911   0.001742  0.007562  0.008012
5   0.999899   0.001877  0.007546  0.008746
6   0.999889   0.001988  0.010963  0.012516
7   0.999949   0.001345  0.000000  0.000000
8   0.999949   0.001351  0.000000  0.000000
9   1.000000   0.000000 -0.020670 -0.044006
10  1.000000   0.000006  0.000000  0.000000
--------------------------------------------------

LINE:
   p_from_mw  q_from_mvar   p_to_mw  q_to_mvar         pl_mw       ql_mvar  i_from_ka   i_to_ka      i_ka  vm_from_pu  va_from_degree  vm_to_pu  va_to_degree  loading_percent
0   0.020660     0.040006 -0.020658  -0.040005  1.983021e-06  1.546194e-06   0.001733  0.001733  0.001733    1.000000        0.000006  0.999949      0.001345         0.753503
1   0.026072     0.029275 -0.026071  -0.029274  1.188502e-06  9.266949e-07   0.001509  0.001509  0.001509    0.999949        0.001345  0.999911      0.001742         0.656072
2  -0.005424     0.009729  0.005482  -0.009684  5.804021e-05  4.525491e-05   0.016079  0.016079  0.016079    0.999949        0.001351  0.998959      0.375826         6.990734
3  -0.018509    -0.021262  0.018509   0.021262  2.748631e-07  2.143153e-07   0.001085  0.001085  0.001085    0.999899        0.001877  0.999911      0.001742         0.471794
4  -0.010963    -0.012516  0.010963   0.012516  1.354142e-07  1.055847e-07   0.000640  0.000640  0.000640    0.999889        0.001988  0.999899      0.001877         0.278464
5   0.003348    -0.004787 -0.003328   0.004803  2.023878e-05  1.578051e-05   0.008442  0.008442  0.008442    0.998722        0.627155  0.998959      0.375826         3.670460
6   0.000406    -0.003794 -0.000396   0.003801  9.773781e-06  7.620778e-06   0.005522  0.005522  0.005522    0.997247        0.533666  0.998959      0.375826         2.401028
7   0.001034    -0.002411 -0.001028   0.002416  6.249959e-06  4.873196e-06   0.003794  0.003794  0.003794    0.997951        0.794449  0.998722      0.627155         1.649542
--------------------------------------------------

TRAFO:
    p_hv_mw  q_hv_mvar   p_lv_mw  q_lv_mvar    pl_mw  ql_mvar   i_hv_ka   i_lv_ka  vm_hv_pu  va_hv_degree  vm_lv_pu  va_lv_degree  loading_percent
0 -0.005414   0.010729  0.005424  -0.009729  0.00001    0.001  0.000463  0.016079  0.999949      0.001345  0.999949      0.001351         0.120184
1  0.020670   0.044006 -0.020660  -0.040006  0.00001    0.004  0.000401  0.001733  1.000000      0.000000  1.000000      0.000006         0.121548
--------------------------------------------------
